Circuit: * C:\Users\kulde\Documents\EE1025\Report6_Files\2_SecondOrderLowPass\SecondOrder2.asc

Direct Newton iteration for .op point succeeded.
Ignoring empty pin current: Ix(x1:v+)
Ignoring empty pin current: Ix(x1:v-)
Ignoring empty pin current: Ix(x1:v+)
Ignoring empty pin current: Ix(x1:v-)

Date: Tue Apr 21 02:10:04 2020
Total elapsed time: 0.065 seconds.

tnom = 27
temp = 27
method = modified trap
totiter = 2085
traniter = 2082
tranpoints = 1042
accept = 1042
rejected = 0
matrix size = 6
fillins = 2
solver = Normal
Matrix Compiler1: 254 bytes object code size  0.1/0.0/[0.0]
Matrix Compiler2: 416 bytes object code size  0.1/0.1/[0.1]

