Circuit: * C:\Users\kulde\Documents\EE1025\Report6_Files\3_FirstOrderHighPass\FirstOrder2.asc

Direct Newton iteration for .op point succeeded.
Ignoring empty pin current: Ix(x1:v+)
Ignoring empty pin current: Ix(x1:v-)
Ignoring empty pin current: Ix(x1:v+)
Ignoring empty pin current: Ix(x1:v-)

Date: Tue Apr 21 02:11:29 2020
Total elapsed time: 0.061 seconds.

tnom = 27
temp = 27
method = modified trap
totiter = 2085
traniter = 2082
tranpoints = 1042
accept = 1042
rejected = 0
matrix size = 5
fillins = 0
solver = Normal
Matrix Compiler1: 150 bytes object code size  0.1/0.0/[0.0]
Matrix Compiler2: 269 bytes object code size  0.0/0.0/[0.0]

