Circuit: * C:\Users\kulde\Documents\EE1025\Report5_Files\5_Summing amplifier\Summing_Amplifier.asc

Direct Newton iteration for .op point succeeded.
Ignoring empty pin current: Ix(x1:v+)
Ignoring empty pin current: Ix(x1:v-)
Ignoring empty pin current: Ix(x1:v+)
Ignoring empty pin current: Ix(x1:v-)

Date: Wed Apr 15 04:32:53 2020
Total elapsed time: 0.044 seconds.

tnom = 27
temp = 27
method = modified trap
totiter = 2085
traniter = 2082
tranpoints = 1042
accept = 1042
rejected = 0
matrix size = 9
fillins = 0
solver = Normal
Matrix Compiler1: 278 bytes object code size  0.1/0.1/[0.0]
Matrix Compiler2: 567 bytes object code size  0.1/0.1/[0.0]

