Circuit: * C:\Users\kulde\Documents\EE1025\Report5_Files\3_Inverting amplifier\Inverting_Amplifer.asc

.OP point found by inspection.
Ignoring empty pin current: Ix(x2:v+)
Ignoring empty pin current: Ix(x2:v-)
Ignoring empty pin current: Ix(x2:v+)
Ignoring empty pin current: Ix(x2:v-)

Date: Wed Apr 15 04:12:38 2020
Total elapsed time: 0.070 seconds.

tnom = 27
temp = 27
method = modified trap
totiter = 2082
traniter = 2082
tranpoints = 1042
accept = 1042
rejected = 0
matrix size = 5
fillins = 0
solver = Normal
Matrix Compiler1: 150 bytes object code size  0.1/0.0/[0.0]
Matrix Compiler2: off  [0.0]/0.0/0.0

