Circuit: * C:\Users\kulde\Documents\EE1025\Report8_Files\SOP_and_POS\SOP.asc

WARNING: Less than two connections to node Y.  This node is used by A4.
Direct Newton iteration for .op point succeeded.

Date: Wed May  6 04:41:24 2020
Total elapsed time: 0.108 seconds.

tnom = 27
temp = 27
method = modified trap
totiter = 6753
traniter = 6750
tranpoints = 3352
accept = 2928
rejected = 424
matrix size = 13
fillins = 0
solver = Normal
Matrix Compiler1: 226 bytes object code size  0.1/0.1/[0.0]
Matrix Compiler2: 553 bytes object code size  0.1/0.1/[0.0]

