Circuit: * C:\Users\kulde\Documents\EE1025\Report6_Files\4_IntegratorAmplifier\IntegratorAmplifier.asc

Direct Newton iteration for .op point succeeded.
Ignoring empty pin current: Ix(x1:v+)
Ignoring empty pin current: Ix(x1:v-)
Ignoring empty pin current: Ix(x1:v+)
Ignoring empty pin current: Ix(x1:v-)

Date: Tue Apr 21 02:40:51 2020
Total elapsed time: 0.064 seconds.

tnom = 27
temp = 27
method = modified trap
totiter = 3421
traniter = 3418
tranpoints = 1710
accept = 1690
rejected = 20
matrix size = 5
fillins = 0
solver = Normal
Matrix Compiler1: 150 bytes object code size  0.1/0.0/[0.0]
Matrix Compiler2: off  [0.0]/0.1/0.0

