Circuit: * C:\Users\kulde\Documents\EE1025\Report7_Files\BJT.asc

.step vbe=0.5
.step vbe=0.52
.step vbe=0.54
.step vbe=0.56
.step vbe=0.58
.step vbe=0.6

Date: Tue Apr 28 04:11:50 2020
Total elapsed time: 0.132 seconds.

tnom = 27
temp = 27
method = trap
totiter = 355
traniter = 0
tranpoints = 0
accept = 0
rejected = 0
matrix size = 9
fillins = 0
solver = Normal
Matrix Compiler1: 456 bytes object code size  0.1/0.1/[0.1]
Matrix Compiler2: 667 bytes object code size  0.1/0.1/[0.0]

