Circuit: * C:\Users\kulde\Documents\EE1025\Report7_Files\diode.asc

.OP point found by inspection.

Date: Tue Apr 28 03:36:39 2020
Total elapsed time: 0.035 seconds.

tnom = 27
temp = 27
method = trap
totiter = 401
traniter = 0
tranpoints = 0
accept = 0
rejected = 0
matrix size = 4
fillins = 0
solver = Normal
Matrix Compiler1: 118 bytes object code size  0.0/0.0/[0.0]
Matrix Compiler2: 242 bytes object code size  0.0/0.0/[0.0]

