Circuit: * C:\Users\kulde\Documents\EE1025\Report7_Files\diode2.asc


Date: Tue Apr 28 04:10:21 2020
Total elapsed time: 0.059 seconds.

tnom = 27
temp = 27
method = trap
totiter = 210
traniter = 0
tranpoints = 0
accept = 0
rejected = 0
matrix size = 4
fillins = 0
solver = Normal
Matrix Compiler1: 100 bytes object code size  0.1/0.0/[0.0]
Matrix Compiler2: off  [0.0]/0.1/0.1

