Circuit: * C:\Users\kulde\Documents\EE1025\Report5_Files\1_Voltage Follower\Voltage_Follower.asc

.OP point found by inspection.
Ignoring empty pin current: Ix(x2:v+)
Ignoring empty pin current: Ix(x2:v-)
Ignoring empty pin current: Ix(x2:v+)
Ignoring empty pin current: Ix(x2:v-)

Date: Wed Apr 15 04:01:59 2020
Total elapsed time: 0.039 seconds.

tnom = 27
temp = 27
method = modified trap
totiter = 2082
traniter = 2082
tranpoints = 1042
accept = 1042
rejected = 0
matrix size = 4
fillins = 0
solver = Normal
Matrix Compiler1: 82 bytes object code size  0.0/0.0/[0.0]
Matrix Compiler2: off  [0.0]/0.0/0.0

