Circuit: * C:\Users\kulde\Documents\EE1025\Report8_Files\XOR_and_XNOR\XOR_and_XNOR.asc

WARNING: Less than two connections to node OUT2.  This node is used by A1.
WARNING: Less than two connections to node OUT1.  This node is used by A1.
Direct Newton iteration for .op point succeeded.

Date: Wed May  6 04:26:00 2020
Total elapsed time: 0.087 seconds.

tnom = 27
temp = 27
method = modified trap
totiter = 5129
traniter = 5126
tranpoints = 2561
accept = 2363
rejected = 198
matrix size = 12
fillins = 0
solver = Normal
Matrix Compiler1: 248 bytes object code size  0.1/0.1/[0.1]
Matrix Compiler2: 542 bytes object code size  0.0/0.1/[0.0]

