Circuit: * C:\Users\kulde\Documents\EE1025\Report8_Files\Colpitt\Colpitt.asc

WARNING: Node OUT is floating.

WARNING: Less than two connections to node OUT.  This node is used by C4.
.OP point found by inspection.

Date: Wed May  6 03:40:28 2020
Total elapsed time: 0.424 seconds.

tnom = 27
temp = 27
method = modified trap
totiter = 42025
traniter = 42025
tranpoints = 15110
accept = 10449
rejected = 4661
matrix size = 10
fillins = 2
solver = Normal
Matrix Compiler1: 738 bytes object code size  0.1/0.1/[0.1]
Matrix Compiler2: 856 bytes object code size  0.1/0.1/[0.1]

